Version 4
SHEET 1 1168 680
WIRE 304 -176 256 -176
WIRE 576 -176 384 -176
WIRE 256 -144 256 -176
WIRE 576 -64 576 -176
WIRE 432 16 -128 16
WIRE 880 80 768 80
WIRE 1120 80 880 80
WIRE 432 144 80 144
WIRE -128 160 -128 16
WIRE 80 160 80 144
WIRE -128 288 -128 240
WIRE 80 288 80 240
WIRE 880 288 880 160
WIRE 1120 288 1120 144
FLAG 256 -144 0
FLAG -128 288 0
FLAG 80 288 0
FLAG 880 288 0
FLAG 1120 288 0
SYMBOL voltage -128 144 R0
WINDOW 123 0 0 Left 0
WINDOW 39 0 0 Left 0
SYMATTR InstName V1
SYMATTR Value PULSE(0 1 0 10p 10p 20n 40n)
SYMBOL voltage 80 144 R0
WINDOW 123 0 0 Left 0
WINDOW 39 0 0 Left 0
SYMATTR InstName V2
SYMATTR Value PULSE(0 1 0 10p 10p 10n 20n)
SYMBOL voltage 400 -176 R90
WINDOW 0 -32 55 VBottom 2
WINDOW 3 32 56 VTop 2
WINDOW 123 0 0 Left 0
WINDOW 39 0 0 Left 0
SYMATTR InstName V3
SYMATTR Value 1
SYMBOL res 864 64 R0
SYMATTR InstName R1
SYMATTR Value 1000k
SYMBOL cap 1104 80 R0
SYMATTR InstName C1
SYMATTR Value 10f
SYMBOL nand 480 80 R0
SYMATTR InstName X1
TEXT -160 312 Left 2 !.tran 0 40n 0 1p
