Version 4
SHEET 1 1116 912
WIRE -192 -112 -496 -112
WIRE -496 -32 -496 -112
WIRE -496 -32 -528 -32
WIRE -272 -32 -352 -32
WIRE 656 -32 576 -32
WIRE 752 -32 656 -32
WIRE -192 -16 -192 -112
WIRE -112 -16 -192 -16
WIRE 128 -16 -48 -16
WIRE 464 0 400 0
WIRE 576 0 576 -32
WIRE 576 0 528 0
WIRE -304 32 -496 32
WIRE -272 32 -272 -32
WIRE -112 32 -272 32
WIRE 96 32 -48 32
WIRE -304 80 -304 32
WIRE -112 80 -304 80
WIRE 64 80 -48 80
WIRE -496 96 -496 32
WIRE -496 96 -528 96
WIRE -320 96 -352 96
WIRE 128 96 128 -16
WIRE 160 96 128 96
WIRE 96 112 96 32
WIRE 160 112 96 112
WIRE -320 128 -320 96
WIRE -112 128 -320 128
WIRE 32 128 -48 128
WIRE 64 128 64 80
WIRE 160 128 64 128
WIRE 400 128 400 0
WIRE 400 128 320 128
WIRE 656 128 576 128
WIRE 752 128 656 128
WIRE 32 144 32 128
WIRE 160 144 32 144
WIRE 464 160 320 160
WIRE 576 160 576 128
WIRE 576 160 528 160
WIRE 160 176 32 176
WIRE -112 192 -320 192
WIRE 32 192 32 176
WIRE 32 192 -48 192
WIRE 160 192 64 192
WIRE 400 192 320 192
WIRE 160 208 96 208
WIRE -496 224 -528 224
WIRE -320 224 -320 192
WIRE -320 224 -352 224
WIRE 160 224 128 224
WIRE -112 240 -304 240
WIRE 64 240 64 192
WIRE 64 240 -48 240
WIRE -496 288 -496 224
WIRE -304 288 -304 240
WIRE -304 288 -496 288
WIRE -112 288 -272 288
WIRE 96 288 96 208
WIRE 96 288 -48 288
WIRE 656 288 576 288
WIRE 752 288 656 288
WIRE 400 320 400 192
WIRE 464 320 400 320
WIRE 576 320 576 288
WIRE 576 320 528 320
WIRE -112 336 -192 336
WIRE 128 336 128 224
WIRE 128 336 -48 336
WIRE -496 352 -528 352
WIRE -272 352 -272 288
WIRE -272 352 -352 352
WIRE -496 432 -496 352
WIRE -192 432 -192 336
WIRE -192 432 -496 432
FLAG 656 48 0
FLAG 752 32 0
FLAG 656 208 0
FLAG 752 192 0
FLAG 656 368 0
FLAG 752 352 0
FLAG -608 -32 0
FLAG -432 -32 0
FLAG -608 96 0
FLAG -432 96 0
FLAG -432 224 0
FLAG -608 224 0
FLAG -432 352 0
FLAG -608 352 0
SYMBOL Digital\\inv -112 -80 R0
SYMATTR InstName A0
SYMBOL Digital\\inv -112 -32 R0
SYMATTR InstName A1
SYMBOL Digital\\inv -112 16 R0
SYMATTR InstName A2
SYMBOL Digital\\inv -112 64 R0
SYMATTR InstName A3
SYMBOL Digital\\inv -112 128 R0
SYMATTR InstName A4
SYMBOL Digital\\inv -112 176 R0
SYMATTR InstName A5
SYMBOL Digital\\inv -112 224 R0
SYMATTR InstName A6
SYMBOL Digital\\inv -112 272 R0
SYMATTR InstName A7
SYMBOL Digital\\inv 464 -64 R0
SYMATTR InstName A9
SYMBOL Digital\\inv 464 96 R0
SYMATTR InstName A10
SYMBOL Digital\\inv 464 256 R0
SYMATTR InstName A11
SYMBOL res 640 -48 R0
SYMATTR InstName R1
SYMATTR Value 100k
SYMBOL res 640 112 R0
SYMATTR InstName R2
SYMATTR Value 100k
SYMBOL res 640 272 R0
SYMATTR InstName R3
SYMATTR Value 100k
SYMBOL cap 736 -32 R0
SYMATTR InstName C1
SYMATTR Value 100f
SYMBOL cap 736 128 R0
SYMATTR InstName C2
SYMATTR Value 100f
SYMBOL cap 736 288 R0
SYMATTR InstName C3
SYMATTR Value 100f
SYMBOL voltage -512 -32 R90
WINDOW 0 -32 56 VBottom 2
WINDOW 3 32 56 VTop 2
WINDOW 123 0 0 Left 2
WINDOW 39 0 0 Left 2
SYMATTR InstName V1
SYMATTR Value 1
SYMBOL voltage -336 -32 R90
WINDOW 0 -32 56 VBottom 2
WINDOW 3 32 56 VTop 2
WINDOW 123 0 0 Left 2
WINDOW 39 0 0 Left 2
SYMATTR InstName V2
SYMATTR Value 1
SYMBOL voltage -512 96 R90
WINDOW 0 -32 56 VBottom 2
WINDOW 3 32 56 VTop 2
WINDOW 123 0 0 Left 2
WINDOW 39 0 0 Left 2
SYMATTR InstName V3
SYMATTR Value PULSE(0 1 10p 10p 10p 2n 4n)
SYMBOL voltage -336 96 R90
WINDOW 0 -32 56 VBottom 2
WINDOW 3 32 56 VTop 2
WINDOW 123 0 0 Left 2
WINDOW 39 0 0 Left 2
SYMATTR InstName V4
SYMATTR Value 1
SYMBOL voltage -336 224 R90
WINDOW 0 -32 56 VBottom 2
WINDOW 3 32 56 VTop 2
WINDOW 123 0 0 Left 2
WINDOW 39 0 0 Left 2
SYMATTR InstName V5
SYMATTR Value 1
SYMBOL voltage -512 224 R90
WINDOW 0 -32 56 VBottom 2
WINDOW 3 32 56 VTop 2
WINDOW 123 0 0 Left 2
WINDOW 39 0 0 Left 2
SYMATTR InstName V6
SYMATTR Value 1
SYMBOL voltage -336 352 R90
WINDOW 0 -32 56 VBottom 2
WINDOW 3 32 56 VTop 2
WINDOW 123 0 0 Left 2
WINDOW 39 0 0 Left 2
SYMATTR InstName V7
SYMATTR Value 1
SYMBOL voltage -512 352 R90
WINDOW 0 -32 56 VBottom 2
WINDOW 3 32 56 VTop 2
WINDOW 123 0 0 Left 2
WINDOW 39 0 0 Left 2
SYMATTR InstName V8
SYMATTR Value 1
SYMBOL shifrator 240 160 R0
SYMATTR InstName X1
TEXT 176 -96 Left 2 !.tran 0 10n 0 1p
