Version 4
SHEET 1 1628 3896
WIRE -512 -112 -512 -256
WIRE -608 64 -608 -256
WIRE -384 64 -608 64
WIRE -288 64 -384 64
WIRE -384 192 -384 64
WIRE -288 192 -384 192
WIRE 48 192 48 128
WIRE 96 192 48 192
WIRE 480 256 432 256
WIRE 608 256 480 256
WIRE 96 320 48 320
WIRE -800 368 -800 -256
WIRE -384 368 -800 368
WIRE -288 368 -384 368
WIRE 480 384 480 256
WIRE 608 384 480 384
WIRE 48 432 48 320
WIRE -384 496 -384 368
WIRE -288 496 -384 496
WIRE 944 576 944 320
WIRE 1088 576 944 576
WIRE 1536 640 1424 640
WIRE 1088 704 944 704
WIRE -992 736 -992 -256
WIRE -384 736 -992 736
WIRE -288 736 -384 736
WIRE -384 864 -384 736
WIRE -288 864 -384 864
WIRE 48 880 48 800
WIRE 112 880 48 880
WIRE 480 944 448 944
WIRE 608 944 480 944
WIRE 112 1008 48 1008
WIRE 944 1008 944 704
WIRE -1184 1040 -1184 -256
WIRE -384 1040 -1184 1040
WIRE -288 1040 -384 1040
WIRE 480 1072 480 944
WIRE 608 1072 480 1072
WIRE 48 1104 48 1008
WIRE -384 1168 -384 1040
WIRE -288 1168 -384 1168
WIRE -704 1408 -704 -256
WIRE -384 1408 -704 1408
WIRE -288 1408 -384 1408
WIRE -384 1536 -384 1408
WIRE -288 1536 -384 1536
WIRE 48 1552 48 1472
WIRE 112 1552 48 1552
WIRE 480 1616 448 1616
WIRE 608 1616 480 1616
WIRE 112 1680 48 1680
WIRE -800 1712 -800 368
WIRE -384 1712 -800 1712
WIRE -288 1712 -384 1712
WIRE 480 1744 480 1616
WIRE 608 1744 480 1744
WIRE 48 1776 48 1680
WIRE -384 1840 -384 1712
WIRE -288 1840 -384 1840
WIRE 944 1920 944 1680
WIRE 1088 1920 944 1920
WIRE 1536 1984 1424 1984
WIRE 1088 2048 944 2048
WIRE -1088 2080 -1088 -256
WIRE -384 2080 -1088 2080
WIRE -288 2080 -384 2080
WIRE -384 2208 -384 2080
WIRE -288 2208 -384 2208
WIRE 48 2224 48 2144
WIRE 112 2224 48 2224
WIRE 480 2288 448 2288
WIRE 608 2288 480 2288
WIRE 112 2352 48 2352
WIRE 944 2352 944 2048
WIRE -1184 2368 -1184 1040
WIRE -384 2368 -1184 2368
WIRE -288 2368 -384 2368
WIRE 480 2416 480 2288
WIRE 608 2416 480 2416
WIRE 48 2432 48 2352
WIRE -384 2496 -384 2368
WIRE -288 2496 -384 2496
WIRE -896 2736 -896 -256
WIRE -384 2736 -896 2736
WIRE -288 2736 -384 2736
WIRE -384 2864 -384 2736
WIRE -288 2864 -384 2864
WIRE 48 2880 48 2800
WIRE 112 2880 48 2880
WIRE 480 2944 448 2944
WIRE 608 2944 480 2944
WIRE 112 3008 48 3008
WIRE 944 3008 944 2992
WIRE -992 3024 -992 736
WIRE -384 3024 -992 3024
WIRE -288 3024 -384 3024
WIRE 480 3072 480 2944
WIRE 608 3072 480 3072
WIRE 48 3088 48 3008
WIRE -384 3152 -384 3024
WIRE -288 3152 -384 3152
WIRE 944 3248 944 3008
WIRE 1088 3248 944 3248
WIRE 1536 3312 1424 3312
WIRE -1088 3376 -1088 2080
WIRE -384 3376 -1088 3376
WIRE -288 3376 -384 3376
WIRE 1088 3376 944 3376
WIRE -384 3504 -384 3376
WIRE -288 3504 -384 3504
WIRE 48 3520 48 3440
WIRE 112 3520 48 3520
WIRE 480 3584 448 3584
WIRE 608 3584 480 3584
WIRE 112 3648 48 3648
WIRE 944 3648 944 3376
WIRE -1184 3664 -1184 2368
WIRE -384 3664 -1184 3664
WIRE -288 3664 -384 3664
WIRE 480 3712 480 3584
WIRE 608 3712 480 3712
WIRE 48 3728 48 3648
WIRE -384 3792 -384 3664
WIRE -288 3792 -384 3792
FLAG -1184 -256 A7
IOPIN -1184 -256 In
FLAG -1088 -256 A6
IOPIN -1088 -256 In
FLAG -992 -256 A5
IOPIN -992 -256 In
FLAG -896 -256 A4
IOPIN -896 -256 In
FLAG -800 -256 A3
IOPIN -800 -256 In
FLAG -704 -256 A2
IOPIN -704 -256 In
FLAG -608 -256 A1
IOPIN -608 -256 In
FLAG -512 -256 A0
IOPIN -512 -256 In
FLAG 1536 640 Q1
IOPIN 1536 640 Out
FLAG 1536 1984 Q2
IOPIN 1536 1984 Out
FLAG 1536 3312 Q3
IOPIN 1536 3312 Out
FLAG -1776 1440 VDD
IOPIN -1776 1440 Out
FLAG -1776 1520 0
FLAG -144 1328 VDD
IOPIN -144 1328 In
FLAG -144 1632 VDD
IOPIN -144 1632 In
FLAG 256 1472 VDD
IOPIN 256 1472 In
FLAG -144 960 VDD
IOPIN -144 960 In
FLAG -144 -16 VDD
IOPIN -144 -16 In
FLAG 240 112 VDD
IOPIN 240 112 In
FLAG 752 176 VDD
IOPIN 752 176 In
FLAG -144 288 VDD
IOPIN -144 288 In
FLAG 1232 496 VDD
IOPIN 1232 496 In
FLAG -144 656 VDD
IOPIN -144 656 In
FLAG 256 800 VDD
IOPIN 256 800 In
FLAG 752 864 VDD
IOPIN 752 864 In
FLAG 752 1536 VDD
IOPIN 752 1536 In
FLAG 1232 1840 VDD
IOPIN 1232 1840 In
FLAG -144 2000 VDD
IOPIN -144 2000 In
FLAG 256 2144 VDD
IOPIN 256 2144 In
FLAG 752 2208 VDD
IOPIN 752 2208 In
FLAG -144 2288 VDD
IOPIN -144 2288 In
FLAG -144 2656 VDD
IOPIN -144 2656 In
FLAG 256 2800 VDD
IOPIN 256 2800 In
FLAG 752 2864 VDD
IOPIN 752 2864 In
FLAG -144 2944 VDD
IOPIN -144 2944 In
FLAG 1232 3168 VDD
IOPIN 1232 3168 In
FLAG -144 3296 VDD
IOPIN -144 3296 In
FLAG 256 3440 VDD
IOPIN 256 3440 In
FLAG 752 3504 VDD
IOPIN 752 3504 In
FLAG -144 3584 VDD
IOPIN -144 3584 In
SYMBOL nand -240 128 R0
SYMATTR InstName X1
SYMBOL nand -240 432 R0
SYMATTR InstName X2
SYMBOL nand 144 256 R0
SYMATTR InstName X3
SYMBOL nand -240 800 R0
SYMATTR InstName X4
SYMBOL nand -240 1104 R0
SYMATTR InstName X5
SYMBOL nand 160 944 R0
SYMATTR InstName X6
SYMBOL nand 656 320 R0
SYMATTR InstName X7
SYMBOL nand 656 1008 R0
SYMATTR InstName X8
SYMBOL nand 1136 640 R0
SYMATTR InstName X9
SYMBOL nand -240 1472 R0
SYMATTR InstName X10
SYMBOL nand -240 1776 R0
SYMATTR InstName X11
SYMBOL nand 160 1616 R0
SYMATTR InstName X12
SYMBOL nand 656 1680 R0
SYMATTR InstName X13
SYMBOL nand -240 2144 R0
SYMATTR InstName X14
SYMBOL nand -240 2432 R0
SYMATTR InstName X15
SYMBOL nand 160 2288 R0
SYMATTR InstName X16
SYMBOL nand 656 2352 R0
SYMATTR InstName X17
SYMBOL nand 1136 1984 R0
SYMATTR InstName X18
SYMBOL nand -240 2800 R0
SYMATTR InstName X19
SYMBOL nand -240 3088 R0
SYMATTR InstName X20
SYMBOL nand 160 2944 R0
SYMATTR InstName X21
SYMBOL nand 656 3008 R0
SYMATTR InstName X22
SYMBOL nand -240 3440 R0
SYMATTR InstName X23
SYMBOL nand -240 3728 R0
SYMATTR InstName X24
SYMBOL nand 160 3584 R0
SYMATTR InstName X25
SYMBOL nand 656 3648 R0
SYMATTR InstName X26
SYMBOL nand 1136 3312 R0
SYMATTR InstName X27
SYMBOL voltage -1776 1424 R0
WINDOW 123 0 0 Left 0
WINDOW 39 0 0 Left 0
SYMATTR InstName V1
SYMATTR Value 1
